<configuration>
    <input>
        <net-file value="../net/city.net.xml"/>
        <route-files value="../routes/traffic.rou.xml"/>
    </input>

    <time>
        <begin value="0"/>
        <end value="1500"/>
    </time>
</configuration>

