<nodes>
    <node id="N1" x="0" y="600" type="traffic_light"/>
    <node id="N2" x="300" y="600" type="traffic_light"/>
    <node id="N3" x="600" y="600" type="traffic_light"/>

    <node id="N4" x="0" y="300" type="traffic_light"/>
    <node id="N5" x="300" y="300" type="traffic_light"/>
    <node id="N6" x="600" y="300" type="traffic_light"/>

    <node id="N7" x="0" y="0" type="traffic_light"/>
    <node id="N8" x="300" y="0" type="traffic_light"/>
    <node id="N9" x="600" y="0" type="traffic_light"/>
</nodes>

