<?xml version="1.0" encoding="UTF-8"?>

<!-- generated on 2026-02-16 07:56:31 by Eclipse SUMO netconvert Version 1.18.0
<configuration xmlns:xsi="http://www.w3.org/2001/XMLSchema-instance" xsi:noNamespaceSchemaLocation="http://sumo.dlr.de/xsd/netconvertConfiguration.xsd">

    <input>
        <node-files value="net/city.nod.xml"/>
        <edge-files value="net/city.edg.xml"/>
    </input>

    <output>
        <output-file value="net/city.net.xml"/>
    </output>

</configuration>
-->

<net version="1.16" junctionCornerDetail="5" limitTurnSpeed="5.50" xmlns:xsi="http://www.w3.org/2001/XMLSchema-instance" xsi:noNamespaceSchemaLocation="http://sumo.dlr.de/xsd/net_file.xsd">

    <location netOffset="0.00,0.00" convBoundary="0.00,0.00,600.00,600.00" origBoundary="0.00,0.00,600.00,600.00" projParameter="!"/>

    <edge id=":N1_0" function="internal">
        <lane id=":N1_0_0" index="0" speed="10.88" length="27.14" shape="10.40,604.80 3.75,603.65 -1.00,600.20 -3.85,594.45 -4.80,586.40"/>
        <lane id=":N1_0_1" index="1" speed="9.84" length="21.99" shape="10.40,601.60 5.15,600.65 1.40,597.80 -0.85,593.05 -1.60,586.40"/>
    </edge>
    <edge id=":N1_2" function="internal">
        <lane id=":N1_2_0" index="0" speed="6.51" length="9.03" shape="4.80,586.40 5.15,588.85 6.20,590.60 7.95,591.65 10.40,592.00"/>
        <lane id=":N1_2_1" index="1" speed="8.00" length="14.19" shape="1.60,586.40 2.15,590.25 3.80,593.00 6.55,594.65 10.40,595.20"/>
        <lane id=":N1_2_2" index="2" speed="8.67" length="16.85" shape="1.60,586.40 2.15,591.65 3.80,595.40 6.55,597.65 10.40,598.40"/>
    </edge>
    <edge id=":N2_0" function="internal">
        <lane id=":N2_0_0" index="0" speed="13.90" length="24.00" shape="310.40,604.80 286.40,604.80"/>
        <lane id=":N2_0_1" index="1" speed="13.90" length="24.00" shape="310.40,601.60 286.40,601.60"/>
    </edge>
    <edge id=":N2_2" function="internal">
        <lane id=":N2_2_0" index="0" speed="10.36" length="7.35" shape="310.40,601.60 303.75,600.65 303.21,600.33"/>
        <lane id=":N2_2_1" index="1" speed="9.84" length="5.46" shape="310.40,601.60 305.15,600.65 305.05,600.57"/>
    </edge>
    <edge id=":N2_4" function="internal">
        <lane id=":N2_4_0" index="0" speed="3.65" length="1.44" shape="310.40,601.60 309.20,600.80"/>
    </edge>
    <edge id=":N2_13" function="internal">
        <lane id=":N2_13_0" index="0" speed="10.36" length="17.17" shape="303.21,600.33 299.00,597.80 296.15,593.05 295.20,586.40"/>
    </edge>
    <edge id=":N2_14" function="internal">
        <lane id=":N2_14_0" index="0" speed="9.84" length="16.53" shape="305.05,600.57 301.40,597.80 299.15,593.05 298.40,586.40"/>
    </edge>
    <edge id=":N2_15" function="internal">
        <lane id=":N2_15_0" index="0" speed="3.65" length="3.23" shape="309.20,600.80 308.80,600.00 309.20,599.20 310.40,598.40"/>
    </edge>
    <edge id=":N2_5" function="internal">
        <lane id=":N2_5_0" index="0" speed="7.33" length="11.73" shape="304.80,586.40 305.15,590.25 306.20,593.00 307.95,594.65 310.40,595.20"/>
        <lane id=":N2_5_1" index="1" speed="8.67" length="16.85" shape="301.60,586.40 302.15,591.65 303.80,595.40 306.55,597.65 310.40,598.40"/>
    </edge>
    <edge id=":N2_7" function="internal">
        <lane id=":N2_7_0" index="0" speed="10.36" length="24.51" shape="301.60,586.40 300.65,593.05 297.80,597.80 293.05,600.65 286.40,601.60"/>
    </edge>
    <edge id=":N2_8" function="internal">
        <lane id=":N2_8_0" index="0" speed="3.65" length="2.34" shape="301.60,586.40 300.80,587.60 300.00,588.00"/>
    </edge>
    <edge id=":N2_16" function="internal">
        <lane id=":N2_16_0" index="0" speed="3.65" length="2.34" shape="300.00,588.00 299.20,587.60 298.40,586.40"/>
    </edge>
    <edge id=":N2_9" function="internal">
        <lane id=":N2_9_0" index="0" speed="6.51" length="9.03" shape="286.40,592.00 288.85,591.65 290.60,590.60 291.65,588.85 292.00,586.40"/>
    </edge>
    <edge id=":N2_10" function="internal">
        <lane id=":N2_10_0" index="0" speed="13.90" length="24.27" shape="286.40,592.00 293.85,592.50 299.19,593.60 304.13,594.70 310.40,595.20"/>
        <lane id=":N2_10_1" index="1" speed="13.90" length="24.27" shape="286.40,595.20 293.85,595.70 299.19,596.80 304.13,597.90 310.40,598.40"/>
    </edge>
    <edge id=":N2_12" function="internal">
        <lane id=":N2_12_0" index="0" speed="3.65" length="1.44" shape="286.40,598.40 287.60,599.20"/>
    </edge>
    <edge id=":N2_17" function="internal">
        <lane id=":N2_17_0" index="0" speed="3.65" length="3.23" shape="287.60,599.20 288.00,600.00 287.60,600.80 286.40,601.60"/>
    </edge>
    <edge id=":N3_0" function="internal">
        <lane id=":N3_0_0" index="0" speed="8.96" length="18.06" shape="604.80,593.60 604.10,598.50 602.00,602.00 598.50,604.10 593.60,604.80"/>
        <lane id=":N3_0_1" index="1" speed="7.66" length="12.90" shape="601.60,593.60 601.10,597.10 599.60,599.60 597.10,601.10 593.60,601.60"/>
    </edge>
    <edge id=":N3_2" function="internal">
        <lane id=":N3_2_0" index="0" speed="3.90" length="2.58" shape="593.60,595.20 594.30,595.10 594.80,594.80 595.10,594.30 595.20,593.60"/>
        <lane id=":N3_2_1" index="1" speed="6.08" length="7.74" shape="593.60,598.40 595.70,598.10 597.20,597.20 598.10,595.70 598.40,593.60"/>
    </edge>
    <edge id=":N4_0" function="internal">
        <lane id=":N4_0_0" index="0" speed="13.90" length="20.80" shape="-4.80,310.40 -4.80,289.60"/>
        <lane id=":N4_0_1" index="1" speed="13.90" length="20.80" shape="-1.60,310.40 -1.60,289.60"/>
    </edge>
    <edge id=":N4_2" function="internal">
        <lane id=":N4_2_0" index="0" speed="9.26" length="5.01" shape="-1.60,310.40 -0.89,305.44"/>
    </edge>
    <edge id=":N4_3" function="internal">
        <lane id=":N4_3_0" index="0" speed="3.65" length="1.44" shape="-1.60,310.40 -0.80,309.20"/>
    </edge>
    <edge id=":N4_12" function="internal">
        <lane id=":N4_12_0" index="0" speed="9.26" length="14.34" shape="-0.89,305.44 -0.85,305.15 1.40,301.40 5.15,299.15 10.40,298.40"/>
    </edge>
    <edge id=":N4_13" function="internal">
        <lane id=":N4_13_0" index="0" speed="3.65" length="3.23" shape="-0.80,309.20 0.00,308.80 0.80,309.20 1.60,310.40"/>
    </edge>
    <edge id=":N4_4" function="internal">
        <lane id=":N4_4_0" index="0" speed="6.51" length="9.03" shape="10.40,304.80 7.95,305.15 6.20,306.20 5.15,307.95 4.80,310.40"/>
        <lane id=":N4_4_1" index="1" speed="8.00" length="14.19" shape="10.40,301.60 6.55,302.15 3.80,303.80 2.15,306.55 1.60,310.40"/>
    </edge>
    <edge id=":N4_6" function="internal">
        <lane id=":N4_6_0" index="0" speed="9.26" length="19.35" shape="10.40,301.60 5.15,300.85 1.40,298.60 -0.85,294.85 -1.60,289.60"/>
    </edge>
    <edge id=":N4_7" function="internal">
        <lane id=":N4_7_0" index="0" speed="3.65" length="2.34" shape="10.40,301.60 9.20,300.80 8.80,300.00"/>
    </edge>
    <edge id=":N4_14" function="internal">
        <lane id=":N4_14_0" index="0" speed="3.65" length="2.34" shape="8.80,300.00 9.20,299.20 10.40,298.40"/>
    </edge>
    <edge id=":N4_8" function="internal">
        <lane id=":N4_8_0" index="0" speed="6.51" length="9.03" shape="4.80,289.60 5.15,292.05 6.20,293.80 7.95,294.85 10.40,295.20"/>
    </edge>
    <edge id=":N4_9" function="internal">
        <lane id=":N4_9_0" index="0" speed="13.90" length="20.80" shape="4.80,289.60 4.80,310.40"/>
        <lane id=":N4_9_1" index="1" speed="13.90" length="20.80" shape="1.60,289.60 1.60,310.40"/>
    </edge>
    <edge id=":N4_11" function="internal">
        <lane id=":N4_11_0" index="0" speed="3.65" length="1.44" shape="1.60,289.60 0.80,290.80"/>
    </edge>
    <edge id=":N4_15" function="internal">
        <lane id=":N4_15_0" index="0" speed="3.65" length="3.23" shape="0.80,290.80 0.00,291.20 -0.80,290.80 -1.60,289.60"/>
    </edge>
    <edge id=":N5_0" function="internal">
        <lane id=":N5_0_0" index="0" speed="6.51" length="9.03" shape="292.00,310.40 291.65,307.95 290.60,306.20 288.85,305.15 286.40,304.80"/>
    </edge>
    <edge id=":N5_1" function="internal">
        <lane id=":N5_1_0" index="0" speed="13.90" length="24.27" shape="292.00,310.40 292.50,302.95 293.60,297.61 294.70,292.67 295.20,286.40"/>
        <lane id=":N5_1_1" index="1" speed="13.90" length="24.27" shape="295.20,310.40 295.70,302.95 296.80,297.61 297.90,292.67 298.40,286.40"/>
    </edge>
    <edge id=":N5_3" function="internal">
        <lane id=":N5_3_0" index="0" speed="9.26" length="5.01" shape="298.40,310.40 299.11,305.44"/>
    </edge>
    <edge id=":N5_4" function="internal">
        <lane id=":N5_4_0" index="0" speed="3.65" length="1.44" shape="298.40,310.40 299.20,309.20"/>
    </edge>
    <edge id=":N5_21" function="internal">
        <lane id=":N5_21_0" index="0" speed="9.26" length="14.34" shape="299.11,305.44 299.15,305.15 301.40,301.40 305.15,299.15 310.40,298.40"/>
    </edge>
    <edge id=":N5_22" function="internal">
        <lane id=":N5_22_0" index="0" speed="3.65" length="3.23" shape="299.20,309.20 300.00,308.80 300.80,309.20 301.60,310.40"/>
    </edge>
    <edge id=":N5_5" function="internal">
        <lane id=":N5_5_0" index="0" speed="6.51" length="9.03" shape="310.40,304.80 307.95,305.15 306.20,306.20 305.15,307.95 304.80,310.40"/>
    </edge>
    <edge id=":N5_6" function="internal">
        <lane id=":N5_6_0" index="0" speed="13.90" length="24.00" shape="310.40,304.80 286.40,304.80"/>
        <lane id=":N5_6_1" index="1" speed="13.90" length="24.00" shape="310.40,301.60 286.40,301.60"/>
    </edge>
    <edge id=":N5_8" function="internal">
        <lane id=":N5_8_0" index="0" speed="9.84" length="4.01" shape="310.40,301.60 306.45,300.89"/>
    </edge>
    <edge id=":N5_9" function="internal">
        <lane id=":N5_9_0" index="0" speed="3.65" length="1.44" shape="310.40,301.60 309.20,300.80"/>
    </edge>
    <edge id=":N5_23" function="internal">
        <lane id=":N5_23_0" index="0" speed="9.84" length="17.98" shape="306.45,300.89 305.15,300.65 301.40,297.80 299.15,293.05 298.40,286.40"/>
    </edge>
    <edge id=":N5_24" function="internal">
        <lane id=":N5_24_0" index="0" speed="3.65" length="3.23" shape="309.20,300.80 308.80,300.00 309.20,299.20 310.40,298.40"/>
    </edge>
    <edge id=":N5_10" function="internal">
        <lane id=":N5_10_0" index="0" speed="6.51" length="9.03" shape="304.80,286.40 305.15,288.85 306.20,290.60 307.95,291.65 310.40,292.00"/>
    </edge>
    <edge id=":N5_11" function="internal">
        <lane id=":N5_11_0" index="0" speed="13.90" length="24.00" shape="304.80,286.40 304.80,310.40"/>
        <lane id=":N5_11_1" index="1" speed="13.90" length="24.00" shape="301.60,286.40 301.60,310.40"/>
    </edge>
    <edge id=":N5_13" function="internal">
        <lane id=":N5_13_0" index="0" speed="10.36" length="7.35" shape="301.60,286.40 300.65,293.05 300.33,293.59"/>
    </edge>
    <edge id=":N5_14" function="internal">
        <lane id=":N5_14_0" index="0" speed="3.65" length="1.44" shape="301.60,286.40 300.80,287.60"/>
    </edge>
    <edge id=":N5_25" function="internal">
        <lane id=":N5_25_0" index="0" speed="10.36" length="17.17" shape="300.33,293.59 297.80,297.80 293.05,300.65 286.40,301.60"/>
    </edge>
    <edge id=":N5_26" function="internal">
        <lane id=":N5_26_0" index="0" speed="3.65" length="3.23" shape="300.80,287.60 300.00,288.00 299.20,287.60 298.40,286.40"/>
    </edge>
    <edge id=":N5_15" function="internal">
        <lane id=":N5_15_0" index="0" speed="8.00" length="14.19" shape="286.40,295.20 290.25,294.65 293.00,293.00 294.65,290.25 295.20,286.40"/>
    </edge>
    <edge id=":N5_16" function="internal">
        <lane id=":N5_16_0" index="0" speed="13.90" length="24.18" shape="286.40,295.20 292.67,294.70 297.61,293.60 302.95,292.50 310.40,292.00"/>
        <lane id=":N5_16_1" index="1" speed="13.90" length="24.18" shape="286.40,298.40 292.67,297.90 297.61,296.80 302.95,295.70 310.40,295.20"/>
        <lane id=":N5_16_2" index="2" speed="13.90" length="24.18" shape="286.40,298.40 310.40,298.40"/>
    </edge>
    <edge id=":N5_19" function="internal">
        <lane id=":N5_19_0" index="0" speed="9.84" length="6.30" shape="286.40,298.40 292.66,299.11"/>
    </edge>
    <edge id=":N5_20" function="internal">
        <lane id=":N5_20_0" index="0" speed="3.65" length="1.44" shape="286.40,298.40 287.60,299.20"/>
    </edge>
    <edge id=":N5_27" function="internal">
        <lane id=":N5_27_0" index="0" speed="9.84" length="15.70" shape="292.66,299.11 293.05,299.15 297.80,301.40 300.65,305.15 301.60,310.40"/>
    </edge>
    <edge id=":N5_28" function="internal">
        <lane id=":N5_28_0" index="0" speed="3.65" length="3.23" shape="287.60,299.20 288.00,300.00 287.60,300.80 286.40,301.60"/>
    </edge>
    <edge id=":N6_0" function="internal">
        <lane id=":N6_0_0" index="0" speed="7.33" length="11.73" shape="595.20,310.40 594.65,307.95 593.00,306.20 590.25,305.15 586.40,304.80"/>
    </edge>
    <edge id=":N6_1" function="internal">
        <lane id=":N6_1_0" index="0" speed="13.90" length="24.18" shape="595.20,310.40 594.70,304.13 593.60,299.19 592.50,293.85 592.00,286.40"/>
        <lane id=":N6_1_1" index="1" speed="13.90" length="24.18" shape="598.40,310.40 597.90,304.13 596.80,299.19 595.70,293.85 595.20,286.40"/>
        <lane id=":N6_1_2" index="2" speed="13.90" length="24.18" shape="598.40,310.40 598.40,286.40"/>
    </edge>
    <edge id=":N6_4" function="internal">
        <lane id=":N6_4_0" index="0" speed="3.65" length="1.44" shape="598.40,310.40 599.20,309.20"/>
    </edge>
    <edge id=":N6_13" function="internal">
        <lane id=":N6_13_0" index="0" speed="3.65" length="3.23" shape="599.20,309.20 600.00,308.80 600.80,309.20 601.60,310.40"/>
    </edge>
    <edge id=":N6_5" function="internal">
        <lane id=":N6_5_0" index="0" speed="13.90" length="24.00" shape="604.80,286.40 604.80,310.40"/>
        <lane id=":N6_5_1" index="1" speed="13.90" length="24.00" shape="601.60,286.40 601.60,310.40"/>
    </edge>
    <edge id=":N6_7" function="internal">
        <lane id=":N6_7_0" index="0" speed="10.36" length="5.01" shape="601.60,286.40 600.89,291.36"/>
    </edge>
    <edge id=":N6_8" function="internal">
        <lane id=":N6_8_0" index="0" speed="3.65" length="1.44" shape="601.60,286.40 600.80,287.60"/>
    </edge>
    <edge id=":N6_14" function="internal">
        <lane id=":N6_14_0" index="0" speed="10.36" length="19.50" shape="600.89,291.36 600.65,293.05 597.80,297.80 593.05,300.65 586.40,301.60"/>
    </edge>
    <edge id=":N6_15" function="internal">
        <lane id=":N6_15_0" index="0" speed="3.65" length="3.23" shape="600.80,287.60 600.00,288.00 599.20,287.60 598.40,286.40"/>
    </edge>
    <edge id=":N6_9" function="internal">
        <lane id=":N6_9_0" index="0" speed="6.51" length="9.03" shape="586.40,292.00 588.85,291.65 590.60,290.60 591.65,288.85 592.00,286.40"/>
        <lane id=":N6_9_1" index="1" speed="8.00" length="14.19" shape="586.40,295.20 590.25,294.65 593.00,293.00 594.65,290.25 595.20,286.40"/>
    </edge>
    <edge id=":N6_11" function="internal">
        <lane id=":N6_11_0" index="0" speed="9.84" length="21.99" shape="586.40,298.40 593.05,299.15 597.80,301.40 600.65,305.15 601.60,310.40"/>
    </edge>
    <edge id=":N6_12" function="internal">
        <lane id=":N6_12_0" index="0" speed="3.65" length="2.34" shape="586.40,298.40 587.60,299.20 588.00,300.00"/>
    </edge>
    <edge id=":N6_16" function="internal">
        <lane id=":N6_16_0" index="0" speed="3.65" length="2.34" shape="588.00,300.00 587.60,300.80 586.40,301.60"/>
    </edge>
    <edge id=":N7_0" function="internal">
        <lane id=":N7_0_0" index="0" speed="8.96" length="18.06" shape="-4.80,6.40 -4.10,1.50 -2.00,-2.00 1.50,-4.10 6.40,-4.80"/>
        <lane id=":N7_0_1" index="1" speed="7.66" length="12.90" shape="-1.60,6.40 -1.10,2.90 0.40,0.40 2.90,-1.10 6.40,-1.60"/>
    </edge>
    <edge id=":N7_2" function="internal">
        <lane id=":N7_2_0" index="0" speed="3.90" length="2.58" shape="6.40,4.80 5.70,4.90 5.20,5.20 4.90,5.70 4.80,6.40"/>
        <lane id=":N7_2_1" index="1" speed="6.08" length="7.74" shape="6.40,1.60 4.30,1.90 2.80,2.80 1.90,4.30 1.60,6.40"/>
    </edge>
    <edge id=":N8_0" function="internal">
        <lane id=":N8_0_0" index="0" speed="6.51" length="9.03" shape="295.20,10.40 294.85,7.95 293.80,6.20 292.05,5.15 289.60,4.80"/>
        <lane id=":N8_0_1" index="1" speed="8.00" length="14.19" shape="298.40,10.40 297.85,6.55 296.20,3.80 293.45,2.15 289.60,1.60"/>
    </edge>
    <edge id=":N8_2" function="internal">
        <lane id=":N8_2_0" index="0" speed="9.26" length="19.35" shape="298.40,10.40 299.15,5.15 301.40,1.40 305.15,-0.85 310.40,-1.60"/>
    </edge>
    <edge id=":N8_3" function="internal">
        <lane id=":N8_3_0" index="0" speed="3.65" length="2.34" shape="298.40,10.40 299.20,9.20 300.00,8.80"/>
    </edge>
    <edge id=":N8_12" function="internal">
        <lane id=":N8_12_0" index="0" speed="3.65" length="2.34" shape="300.00,8.80 300.80,9.20 301.60,10.40"/>
    </edge>
    <edge id=":N8_4" function="internal">
        <lane id=":N8_4_0" index="0" speed="6.51" length="9.03" shape="310.40,4.80 307.95,5.15 306.20,6.20 305.15,7.95 304.80,10.40"/>
    </edge>
    <edge id=":N8_5" function="internal">
        <lane id=":N8_5_0" index="0" speed="13.90" length="20.80" shape="310.40,4.80 289.60,4.80"/>
        <lane id=":N8_5_1" index="1" speed="13.90" length="20.80" shape="310.40,1.60 289.60,1.60"/>
    </edge>
    <edge id=":N8_7" function="internal">
        <lane id=":N8_7_0" index="0" speed="3.65" length="1.44" shape="310.40,1.60 309.20,0.80"/>
    </edge>
    <edge id=":N8_13" function="internal">
        <lane id=":N8_13_0" index="0" speed="3.65" length="3.23" shape="309.20,0.80 308.80,0.00 309.20,-0.80 310.40,-1.60"/>
    </edge>
    <edge id=":N8_8" function="internal">
        <lane id=":N8_8_0" index="0" speed="13.90" length="20.80" shape="289.60,-4.80 310.40,-4.80"/>
        <lane id=":N8_8_1" index="1" speed="13.90" length="20.80" shape="289.60,-1.60 310.40,-1.60"/>
    </edge>
    <edge id=":N8_10" function="internal">
        <lane id=":N8_10_0" index="0" speed="9.26" length="5.01" shape="289.60,-1.60 294.56,-0.89"/>
    </edge>
    <edge id=":N8_11" function="internal">
        <lane id=":N8_11_0" index="0" speed="3.65" length="1.44" shape="289.60,-1.60 290.80,-0.80"/>
    </edge>
    <edge id=":N8_14" function="internal">
        <lane id=":N8_14_0" index="0" speed="9.26" length="14.34" shape="294.56,-0.89 294.85,-0.85 298.60,1.40 300.85,5.15 301.60,10.40"/>
    </edge>
    <edge id=":N8_15" function="internal">
        <lane id=":N8_15_0" index="0" speed="3.65" length="3.23" shape="290.80,-0.80 291.20,0.00 290.80,0.80 289.60,1.60"/>
    </edge>
    <edge id=":N9_0" function="internal">
        <lane id=":N9_0_0" index="0" speed="6.51" length="9.03" shape="592.00,10.40 591.65,7.95 590.60,6.20 588.85,5.15 586.40,4.80"/>
        <lane id=":N9_0_1" index="1" speed="8.00" length="14.19" shape="595.20,10.40 594.65,6.55 593.00,3.80 590.25,2.15 586.40,1.60"/>
    </edge>
    <edge id=":N9_2" function="internal">
        <lane id=":N9_2_0" index="0" speed="10.88" length="27.14" shape="586.40,-4.80 594.45,-3.85 600.20,-1.00 603.65,3.75 604.80,10.40"/>
        <lane id=":N9_2_1" index="1" speed="9.84" length="21.99" shape="586.40,-1.60 593.05,-0.85 597.80,1.40 600.65,5.15 601.60,10.40"/>
    </edge>

    <edge id="N1_N2" from="N1" to="N2" priority="-1">
        <lane id="N1_N2_0" index="0" speed="13.90" length="276.00" shape="10.40,592.00 286.40,592.00"/>
        <lane id="N1_N2_1" index="1" speed="13.90" length="276.00" shape="10.40,595.20 286.40,595.20"/>
        <lane id="N1_N2_2" index="2" speed="13.90" length="276.00" shape="10.40,598.40 286.40,598.40"/>
    </edge>
    <edge id="N1_N4" from="N1" to="N4" priority="-1">
        <lane id="N1_N4_0" index="0" speed="13.90" length="276.00" shape="-4.80,586.40 -4.80,310.40"/>
        <lane id="N1_N4_1" index="1" speed="13.90" length="276.00" shape="-1.60,586.40 -1.60,310.40"/>
    </edge>
    <edge id="N2_N1" from="N2" to="N1" priority="-1">
        <lane id="N2_N1_0" index="0" speed="13.90" length="276.00" shape="286.40,604.80 10.40,604.80"/>
        <lane id="N2_N1_1" index="1" speed="13.90" length="276.00" shape="286.40,601.60 10.40,601.60"/>
    </edge>
    <edge id="N2_N3" from="N2" to="N3" priority="-1">
        <lane id="N2_N3_0" index="0" speed="13.90" length="283.20" shape="310.40,595.20 593.60,595.20"/>
        <lane id="N2_N3_1" index="1" speed="13.90" length="283.20" shape="310.40,598.40 593.60,598.40"/>
    </edge>
    <edge id="N2_N5" from="N2" to="N5" priority="-1">
        <lane id="N2_N5_0" index="0" speed="13.90" length="276.00" shape="292.00,586.40 292.00,310.40"/>
        <lane id="N2_N5_1" index="1" speed="13.90" length="276.00" shape="295.20,586.40 295.20,310.40"/>
        <lane id="N2_N5_2" index="2" speed="13.90" length="276.00" shape="298.40,586.40 298.40,310.40"/>
    </edge>
    <edge id="N3_N2" from="N3" to="N2" priority="-1">
        <lane id="N3_N2_0" index="0" speed="13.90" length="283.20" shape="593.60,604.80 310.40,604.80"/>
        <lane id="N3_N2_1" index="1" speed="13.90" length="283.20" shape="593.60,601.60 310.40,601.60"/>
    </edge>
    <edge id="N3_N6" from="N3" to="N6" priority="-1">
        <lane id="N3_N6_0" index="0" speed="13.90" length="283.20" shape="595.20,593.60 595.20,310.40"/>
        <lane id="N3_N6_1" index="1" speed="13.90" length="283.20" shape="598.40,593.60 598.40,310.40"/>
    </edge>
    <edge id="N4_N1" from="N4" to="N1" priority="-1">
        <lane id="N4_N1_0" index="0" speed="13.90" length="276.00" shape="4.80,310.40 4.80,586.40"/>
        <lane id="N4_N1_1" index="1" speed="13.90" length="276.00" shape="1.60,310.40 1.60,586.40"/>
    </edge>
    <edge id="N4_N5" from="N4" to="N5" priority="-1">
        <lane id="N4_N5_0" index="0" speed="13.90" length="276.00" shape="10.40,295.20 286.40,295.20"/>
        <lane id="N4_N5_1" index="1" speed="13.90" length="276.00" shape="10.40,298.40 286.40,298.40"/>
    </edge>
    <edge id="N4_N7" from="N4" to="N7" priority="-1">
        <lane id="N4_N7_0" index="0" speed="13.90" length="283.20" shape="-4.80,289.60 -4.80,6.40"/>
        <lane id="N4_N7_1" index="1" speed="13.90" length="283.20" shape="-1.60,289.60 -1.60,6.40"/>
    </edge>
    <edge id="N5_N2" from="N5" to="N2" priority="-1">
        <lane id="N5_N2_0" index="0" speed="13.90" length="276.00" shape="304.80,310.40 304.80,586.40"/>
        <lane id="N5_N2_1" index="1" speed="13.90" length="276.00" shape="301.60,310.40 301.60,586.40"/>
    </edge>
    <edge id="N5_N4" from="N5" to="N4" priority="-1">
        <lane id="N5_N4_0" index="0" speed="13.90" length="276.00" shape="286.40,304.80 10.40,304.80"/>
        <lane id="N5_N4_1" index="1" speed="13.90" length="276.00" shape="286.40,301.60 10.40,301.60"/>
    </edge>
    <edge id="N5_N6" from="N5" to="N6" priority="-1">
        <lane id="N5_N6_0" index="0" speed="13.90" length="276.00" shape="310.40,292.00 586.40,292.00"/>
        <lane id="N5_N6_1" index="1" speed="13.90" length="276.00" shape="310.40,295.20 586.40,295.20"/>
        <lane id="N5_N6_2" index="2" speed="13.90" length="276.00" shape="310.40,298.40 586.40,298.40"/>
    </edge>
    <edge id="N5_N8" from="N5" to="N8" priority="-1">
        <lane id="N5_N8_0" index="0" speed="13.90" length="276.00" shape="295.20,286.40 295.20,10.40"/>
        <lane id="N5_N8_1" index="1" speed="13.90" length="276.00" shape="298.40,286.40 298.40,10.40"/>
    </edge>
    <edge id="N6_N3" from="N6" to="N3" priority="-1">
        <lane id="N6_N3_0" index="0" speed="13.90" length="283.20" shape="604.80,310.40 604.80,593.60"/>
        <lane id="N6_N3_1" index="1" speed="13.90" length="283.20" shape="601.60,310.40 601.60,593.60"/>
    </edge>
    <edge id="N6_N5" from="N6" to="N5" priority="-1">
        <lane id="N6_N5_0" index="0" speed="13.90" length="276.00" shape="586.40,304.80 310.40,304.80"/>
        <lane id="N6_N5_1" index="1" speed="13.90" length="276.00" shape="586.40,301.60 310.40,301.60"/>
    </edge>
    <edge id="N6_N9" from="N6" to="N9" priority="-1">
        <lane id="N6_N9_0" index="0" speed="13.90" length="276.00" shape="592.00,286.40 592.00,10.40"/>
        <lane id="N6_N9_1" index="1" speed="13.90" length="276.00" shape="595.20,286.40 595.20,10.40"/>
        <lane id="N6_N9_2" index="2" speed="13.90" length="276.00" shape="598.40,286.40 598.40,10.40"/>
    </edge>
    <edge id="N7_N4" from="N7" to="N4" priority="-1">
        <lane id="N7_N4_0" index="0" speed="13.90" length="283.20" shape="4.80,6.40 4.80,289.60"/>
        <lane id="N7_N4_1" index="1" speed="13.90" length="283.20" shape="1.60,6.40 1.60,289.60"/>
    </edge>
    <edge id="N7_N8" from="N7" to="N8" priority="-1">
        <lane id="N7_N8_0" index="0" speed="13.90" length="283.20" shape="6.40,-4.80 289.60,-4.80"/>
        <lane id="N7_N8_1" index="1" speed="13.90" length="283.20" shape="6.40,-1.60 289.60,-1.60"/>
    </edge>
    <edge id="N8_N5" from="N8" to="N5" priority="-1">
        <lane id="N8_N5_0" index="0" speed="13.90" length="276.00" shape="304.80,10.40 304.80,286.40"/>
        <lane id="N8_N5_1" index="1" speed="13.90" length="276.00" shape="301.60,10.40 301.60,286.40"/>
    </edge>
    <edge id="N8_N7" from="N8" to="N7" priority="-1">
        <lane id="N8_N7_0" index="0" speed="13.90" length="283.20" shape="289.60,4.80 6.40,4.80"/>
        <lane id="N8_N7_1" index="1" speed="13.90" length="283.20" shape="289.60,1.60 6.40,1.60"/>
    </edge>
    <edge id="N8_N9" from="N8" to="N9" priority="-1">
        <lane id="N8_N9_0" index="0" speed="13.90" length="276.00" shape="310.40,-4.80 586.40,-4.80"/>
        <lane id="N8_N9_1" index="1" speed="13.90" length="276.00" shape="310.40,-1.60 586.40,-1.60"/>
    </edge>
    <edge id="N9_N6" from="N9" to="N6" priority="-1">
        <lane id="N9_N6_0" index="0" speed="13.90" length="276.00" shape="604.80,10.40 604.80,286.40"/>
        <lane id="N9_N6_1" index="1" speed="13.90" length="276.00" shape="601.60,10.40 601.60,286.40"/>
    </edge>
    <edge id="N9_N8" from="N9" to="N8" priority="-1">
        <lane id="N9_N8_0" index="0" speed="13.90" length="276.00" shape="586.40,4.80 310.40,4.80"/>
        <lane id="N9_N8_1" index="1" speed="13.90" length="276.00" shape="586.40,1.60 310.40,1.60"/>
    </edge>

    <tlLogic id="N1" type="static" programID="0" offset="0">
        <phase duration="42" state="GGGGG"/>
        <phase duration="3"  state="yyyyy"/>
        <phase duration="42" state="GGGGG"/>
        <phase duration="3"  state="yyyyy"/>
    </tlLogic>
    <tlLogic id="N2" type="static" programID="0" offset="0">
        <phase duration="42" state="GGgggrrrrGGGg"/>
        <phase duration="3"  state="yyyyyrrrryyyy"/>
        <phase duration="42" state="rrrrrGGGgGrrr"/>
        <phase duration="3"  state="rrrrryyyyyrrr"/>
    </tlLogic>
    <tlLogic id="N3" type="static" programID="0" offset="0">
        <phase duration="42" state="GGGG"/>
        <phase duration="3"  state="yyyy"/>
        <phase duration="42" state="GGGG"/>
        <phase duration="3"  state="yyyy"/>
    </tlLogic>
    <tlLogic id="N4" type="static" programID="0" offset="0">
        <phase duration="42" state="GGggrrrrGGGg"/>
        <phase duration="3"  state="yyyyrrrryyyy"/>
        <phase duration="42" state="rrrrGGGgGrrr"/>
        <phase duration="3"  state="rrrryyyyyrrr"/>
    </tlLogic>
    <tlLogic id="N5" type="static" programID="0" offset="0">
        <phase duration="38" state="GGGggrrrrrGGGggrrrrrr"/>
        <phase duration="3"  state="yyyggrrrrryyyggrrrrrr"/>
        <phase duration="6"  state="rrrGGrrrrrrrrGGrrrrrr"/>
        <phase duration="3"  state="rrryyrrrrrrrryyrrrrrr"/>
        <phase duration="37" state="rrrrrGGGggrrrrrGGGGgg"/>
        <phase duration="3"  state="rrrrryyyyyrrrrryyyyyy"/>
    </tlLogic>
    <tlLogic id="N6" type="static" programID="0" offset="0">
        <phase duration="42" state="GGGGgGGggrrrr"/>
        <phase duration="3"  state="yyyyyyyyyrrrr"/>
        <phase duration="42" state="GrrrrrrrrGGGg"/>
        <phase duration="3"  state="yrrrrrrrryyyy"/>
    </tlLogic>
    <tlLogic id="N7" type="static" programID="0" offset="0">
        <phase duration="42" state="GGGG"/>
        <phase duration="3"  state="yyyy"/>
        <phase duration="42" state="GGGG"/>
        <phase duration="3"  state="yyyy"/>
    </tlLogic>
    <tlLogic id="N8" type="static" programID="0" offset="0">
        <phase duration="42" state="rrrrGGGgGGgg"/>
        <phase duration="3"  state="rrrryyyyyyyy"/>
        <phase duration="42" state="GGGgGrrrrrrr"/>
        <phase duration="3"  state="yyyyyrrrrrrr"/>
    </tlLogic>
    <tlLogic id="N9" type="static" programID="0" offset="0">
        <phase duration="42" state="GGGG"/>
        <phase duration="3"  state="yyyy"/>
        <phase duration="42" state="GGGG"/>
        <phase duration="3"  state="yyyy"/>
    </tlLogic>

    <junction id="N1" type="traffic_light" x="0.00" y="600.00" incLanes="N2_N1_0 N2_N1_1 N4_N1_0 N4_N1_1" intLanes=":N1_0_0 :N1_0_1 :N1_2_0 :N1_2_1 :N1_2_2" shape="10.40,606.40 10.40,590.40 8.18,589.96 7.40,589.40 6.84,588.62 6.51,587.62 6.40,586.40 -6.40,586.40 -5.93,592.51 -4.53,597.51 -2.20,601.40 1.07,604.18 5.27,605.84">
        <request index="0" response="00000" foes="00000" cont="0"/>
        <request index="1" response="00000" foes="00000" cont="0"/>
        <request index="2" response="00000" foes="00000" cont="0"/>
        <request index="3" response="00000" foes="00000" cont="0"/>
        <request index="4" response="00000" foes="00000" cont="0"/>
    </junction>